
OS:Version,
  {520fe20e-3a79-4953-84ba-1ab8106f83bc}, !- Handle
  2.9.1;                                  !- Version Identifier

OS:ClimateZones,
  {8a3ac41c-57d4-48e4-a48e-1f232e262211}, !- Handle
  ,                                       !- Active Institution
  ,                                       !- Active Year
  ASHRAE,                                 !- Climate Zone Institution Name 1
  ANSI/ASHRAE Standard 169,               !- Climate Zone Document Name 1
  2006,                                   !- Climate Zone Document Year 1
  4A,                                     !- Climate Zone Value 1
  CEC,                                    !- Climate Zone Institution Name 2
  California Climate Zone Descriptions,   !- Climate Zone Document Name 2
  1995,                                   !- Climate Zone Document Year 2
  4;                                      !- Climate Zone Value 2

OS:LifeCycleCost:Parameters,
  {1d4d0f18-e6dd-45c8-896c-f4f2a89e6ae5}, !- Handle
  FEMP,                                   !- Analysis Type
  ,                                       !- Discounting Convention
  ,                                       !- Inflation Approach
  ,                                       !- Real Discount Rate
  ,                                       !- Nominal Discount Rate
  ,                                       !- Inflation
  ,                                       !- Base Date Month
  ,                                       !- Base Date Year
  ,                                       !- Service Date Month
  ,                                       !- Service Date Year
  ,                                       !- Length of Study Period in Years
  ,                                       !- Tax Rate
  ,                                       !- Depreciation Method
  Yes;                                    !- Use NIST Fuel Escalation Rates

OS:YearDescription,
  {c1349a5a-d7e1-4ed9-8e5b-24480649c25c}, !- Handle
  2015,                                   !- Calendar Year
  ,                                       !- Day of Week for Start Day
  ;                                       !- Is Leap Year

OS:RadianceParameters,
  {8297fd56-36de-4b79-a182-b7636f4ae3e3}, !- Handle
  1,                                      !- Accumulated Rays per Record
  0,                                      !- Direct Threshold
  1,                                      !- Direct Certainty
  1,                                      !- Direct Jitter
  1,                                      !- Direct Pretest
  6,                                      !- Ambient Bounces VMX
  2,                                      !- Ambient Bounces DMX
  4050,                                   !- Ambient Divisions VMX
  512,                                    !- Ambient Divisions DMX
  256,                                    !- Ambient Supersamples
  0.001,                                  !- Limit Weight VMX
  0.001,                                  !- Limit Weight DMX
  500,                                    !- Klems Sampling Density
  146;                                    !- Sky Discretization Resolution

OS:SimulationControl,
  {7c57f4fc-548f-44e7-a438-1feca6a75629}, !- Handle
  ,                                       !- Do Zone Sizing Calculation
  ,                                       !- Do System Sizing Calculation
  ,                                       !- Do Plant Sizing Calculation
  No;                                     !- Run Simulation for Sizing Periods

OS:Sizing:Parameters,
  {ee365675-827e-489e-9a24-0f596988dec4}, !- Handle
  1,                                      !- Heating Sizing Factor
  1;                                      !- Cooling Sizing Factor

OS:ProgramControl,
  {8a7b938e-cdcb-40af-82b1-79c267c36bae}; !- Handle

OS:Timestep,
  {31824a36-2f0f-4919-a534-cdb00e20d2e0}, !- Handle
  6;                                      !- Number of Timesteps per Hour

OS:OutputControl:ReportingTolerances,
  {275082a5-6cfd-4756-972e-8810ab253e29}; !- Handle

OS:ConvergenceLimits,
  {fcca1605-8471-4f2f-a485-a59582311771}; !- Handle

OS:ShadowCalculation,
  {d875de65-75c7-4d9d-883e-07bd79421b67}, !- Handle
  7,                                      !- Calculation Frequency
  15000;                                  !- Maximum Figures in Shadow Overlap Calculations

OS:SurfaceConvectionAlgorithm:Inside,
  {5add9a33-b760-4e82-a0f9-3ae0e369b9c4}, !- Handle
  TARP;                                   !- Algorithm

OS:SurfaceConvectionAlgorithm:Outside,
  {0257be16-14fc-418e-bc73-178201ccc4ec}, !- Handle
  DOE-2;                                  !- Algorithm

OS:HeatBalanceAlgorithm,
  {5a22c4c4-a6a6-4769-b0a8-f79498f98a6d}, !- Handle
  ConductionTransferFunction,             !- Algorithm
  200;                                    !- Surface Temperature Upper Limit {C}

OS:ZoneAirHeatBalanceAlgorithm,
  {24c912f8-6f7f-4792-8ea0-a8d47b3c41a1}, !- Handle
  AnalyticalSolution;                     !- Algorithm

OS:ZoneAirContaminantBalance,
  {07e7d420-4b9b-4760-8a70-01b36aa6074f}; !- Handle

OS:ZoneCapacitanceMultiplier:ResearchSpecial,
  {91056672-db13-4057-9cb7-7ac44d24bfc5}, !- Handle
  ,                                       !- Temperature Capacity Multiplier
  ,                                       !- Humidity Capacity Multiplier
  ;                                       !- Carbon Dioxide Capacity Multiplier

OS:RunPeriod,
  {17c33f47-c9b9-463a-84bc-12596f349148}, !- Handle
  Run Period 1,                           !- Name
  7,                                      !- Begin Month
  23,                                     !- Begin Day of Month
  7,                                      !- End Month
  23,                                     !- End Day of Month
  ,                                       !- Use Weather File Holidays and Special Days
  ,                                       !- Use Weather File Daylight Saving Period
  ,                                       !- Apply Weekend Holiday Rule
  ,                                       !- Use Weather File Rain Indicators
  ,                                       !- Use Weather File Snow Indicators
  ;                                       !- Number of Times Runperiod to be Repeated

OS:Building,
  {e0ce3521-4e53-4eca-8017-2f1c8dec2b50}, !- Handle
  Building 1,                             !- Name
  ,                                       !- Building Sector Type
  ,                                       !- North Axis {deg}
  ,                                       !- Nominal Floor to Floor Height {m}
  ,                                       !- Space Type Name
  {81ac5a42-c18d-463c-a8f7-afec306b5ea3}, !- Default Construction Set Name
  ,                                       !- Default Schedule Set Name
  ,                                       !- Standards Number of Stories
  ,                                       !- Standards Number of Above Ground Stories
  ,                                       !- Standards Template
  ,                                       !- Standards Building Type
  ,                                       !- Standards Number of Living Units
  ,                                       !- Relocatable
  ;                                       !- Nominal Floor to Ceiling Height {m}

OS:Facility,
  {b6e6be84-f909-42a5-9deb-ef70c0296721}; !- Handle

OS:Site,
  {f38b0e3c-04e1-4822-940e-9b46c436222c}, !- Handle
  Tehran Mehrabad,                        !- Name
  35.41,                                  !- Latitude {deg}
  51.19,                                  !- Longitude {deg}
  3,                                      !- Time Zone {hr}
  1190,                                   !- Elevation {m}
  ;                                       !- Terrain

OS:Rendering:Color,
  {05d9990d-5c78-4913-90c2-f9871d303e73}, !- Handle
  Rendering Color 1,                      !- Name
  230,                                    !- Rendering Red Value
  157,                                    !- Rendering Green Value
  120;                                    !- Rendering Blue Value

OS:ScheduleTypeLimits,
  {d268ea18-bbf1-4d74-b4cd-4a3153aeac57}, ! Handle
  Fraction,                               ! Name
  0,                                      ! Lower Limit Value
  1,                                      ! Upper Limit Value
  CONTINUOUS;                             ! Numeric Type

OS:DesignSpecification:OutdoorAir,
  {016b1f65-8b2f-47b7-bd70-08d2efc13593}, !- Handle
  189.1-2009 - Office - BreakRoom - CZ4-8 Ventilation, !- Name
  Sum,                                    !- Outdoor Air Method
  0.007079211648,                         !- Outdoor Air Flow per Person {m3/s-person}
  ,                                       !- Outdoor Air Flow per Floor Area {m3/s-m2}
  ,                                       !- Outdoor Air Flow Rate {m3/s}
  ,                                       !- Outdoor Air Flow Air Changes per Hour {1/hr}
  ;                                       !- Outdoor Air Flow Rate Fraction Schedule Name

OS:People:Definition,
  {00fa11cd-b0ae-42af-8e09-91a4bec75b41}, !- Handle
  DOEE People Definition,                 !- Name
  People/Area,                            !- Number of People Calculation Method
  ,                                       !- Number of People {people}
  0.0254,                                 !- People per Space Floor Area {person/m2}
  ,                                       !- Space Floor Area per Person {m2/person}
  0.3;                                    !- Fraction Radiant

OS:ScheduleTypeLimits,
  {2bdc1168-3398-4285-8d2e-65c4a1177fbf}, !- Handle
  ActivityLevel,                          !- Name
  0,                                      !- Lower Limit Value
  ,                                       !- Upper Limit Value
  Continuous,                             !- Numeric Type
  ActivityLevel;                          !- Unit Type

OS:ThermostatSetpoint:DualSetpoint,
  {ac16da02-7df0-4831-bea2-0a1562e6dd02}, !- Handle
  189.1-2009 - Office - BreakRoom - CZ4-8 Thermostat, !- Name
  ,                                       !- Heating Setpoint Temperature Schedule Name
  ;                                       !- Cooling Setpoint Temperature Schedule Name

OS:ScheduleTypeLimits,
  {dcd67669-2607-4e30-907b-372b7a32d6d4}, !- Handle
  Temperature 36,                         !- Name
  ,                                       !- Lower Limit Value
  ,                                       !- Upper Limit Value
  Continuous,                             !- Numeric Type
  Temperature;                            !- Unit Type

OS:ScheduleTypeLimits,
  {77d389be-04d2-4022-8ac0-15d7a55f8f24}, !- Handle
  Temperature 37,                         !- Name
  ,                                       !- Lower Limit Value
  ,                                       !- Upper Limit Value
  Continuous,                             !- Numeric Type
  Temperature;                            !- Unit Type

OS:Rendering:Color,
  {2d87cb1d-91b1-439a-9dc2-089602b69074}, !- Handle
  Rendering Color 2,                      !- Name
  120,                                    !- Rendering Red Value
  230,                                    !- Rendering Green Value
  199;                                    !- Rendering Blue Value

OS:DesignSpecification:OutdoorAir,
  {5f513900-7434-4f1b-8680-89ceda17c8bf}, !- Handle
  189.1-2009 - Office - ClosedOffice - CZ4-8 Ventilation, !- Name
  Sum,                                    !- Outdoor Air Method
  0.009438948864,                         !- Outdoor Air Flow per Person {m3/s-person}
  ,                                       !- Outdoor Air Flow per Floor Area {m3/s-m2}
  ,                                       !- Outdoor Air Flow Rate {m3/s}
  ,                                       !- Outdoor Air Flow Air Changes per Hour {1/hr}
  ;                                       !- Outdoor Air Flow Rate Fraction Schedule Name

OS:ThermostatSetpoint:DualSetpoint,
  {ed89c28b-0ed8-4246-8016-5397e4abba15}, !- Handle
  189.1-2009 - Office - ClosedOffice - CZ4-8 Thermostat, !- Name
  ,                                       !- Heating Setpoint Temperature Schedule Name
  ;                                       !- Cooling Setpoint Temperature Schedule Name

OS:Rendering:Color,
  {e7c36d46-a95a-4a68-9317-6570ab56fd6c}, !- Handle
  Rendering Color 3,                      !- Name
  230,                                    !- Rendering Red Value
  196,                                    !- Rendering Green Value
  120;                                    !- Rendering Blue Value

OS:DefaultScheduleSet,
  {ae997231-5266-4a7a-8101-ff808d5eca56}, !- Handle
  DOEE - Conference - Schedule Set,       !- Name
  ,                                       !- Hours of Operation Schedule Name
  ,                                       !- Number of People Schedule Name
  ,                                       !- People Activity Level Schedule Name
  ,                                       !- Lighting Schedule Name
  ,                                       !- Electric Equipment Schedule Name
  ,                                       !- Gas Equipment Schedule Name
  ,                                       !- Hot Water Equipment Schedule Name
  ,                                       !- Infiltration Schedule Name
  ,                                       !- Steam Equipment Schedule Name
  ;                                       !- Other Equipment Schedule Name

OS:DesignSpecification:OutdoorAir,
  {43a43d22-3df0-4fdc-9853-a00bc031ba5d}, !- Handle
  189.1-2009 - Office - Conference - CZ4-8 Ventilation, !- Name
  Sum,                                    !- Outdoor Air Method
  0.009438948864,                         !- Outdoor Air Flow per Person {m3/s-person}
  ,                                       !- Outdoor Air Flow per Floor Area {m3/s-m2}
  ,                                       !- Outdoor Air Flow Rate {m3/s}
  ,                                       !- Outdoor Air Flow Air Changes per Hour {1/hr}
  ;                                       !- Outdoor Air Flow Rate Fraction Schedule Name

OS:ThermostatSetpoint:DualSetpoint,
  {6c8f1284-6e6a-4ce6-86c6-5b5c14b29871}, !- Handle
  189.1-2009 - Office - Conference - CZ4-8 Thermostat, !- Name
  ,                                       !- Heating Setpoint Temperature Schedule Name
  ;                                       !- Cooling Setpoint Temperature Schedule Name

OS:Rendering:Color,
  {cfcd641e-4869-4708-b4cb-8bc1314245b2}, !- Handle
  Rendering Color 4,                      !- Name
  169,                                    !- Rendering Red Value
  31,                                     !- Rendering Green Value
  31;                                     !- Rendering Blue Value

OS:DefaultScheduleSet,
  {d383879b-c347-4b94-88c2-b9a4a1eed17f}, !- Handle
  DOEE - Corridor - Schedule Set,         !- Name
  ,                                       !- Hours of Operation Schedule Name
  ,                                       !- Number of People Schedule Name
  ,                                       !- People Activity Level Schedule Name
  ,                                       !- Lighting Schedule Name
  ,                                       !- Electric Equipment Schedule Name
  ,                                       !- Gas Equipment Schedule Name
  ,                                       !- Hot Water Equipment Schedule Name
  ,                                       !- Infiltration Schedule Name
  ,                                       !- Steam Equipment Schedule Name
  ;                                       !- Other Equipment Schedule Name

OS:DesignSpecification:OutdoorAir,
  {ed94a4a9-5882-4529-b93c-27d8c0a53baf}, !- Handle
  189.1-2009 - Office - Corridor - CZ4-8 Ventilation, !- Name
  Sum,                                    !- Outdoor Air Method
  ,                                       !- Outdoor Air Flow per Person {m3/s-person}
  0.000254,                               !- Outdoor Air Flow per Floor Area {m3/s-m2}
  ,                                       !- Outdoor Air Flow Rate {m3/s}
  ,                                       !- Outdoor Air Flow Air Changes per Hour {1/hr}
  ;                                       !- Outdoor Air Flow Rate Fraction Schedule Name

OS:ThermostatSetpoint:DualSetpoint,
  {58524877-eb75-418e-aa31-e0a9d992e390}, !- Handle
  189.1-2009 - Office - Corridor - CZ4-8 Thermostat, !- Name
  ,                                       !- Heating Setpoint Temperature Schedule Name
  ;                                       !- Cooling Setpoint Temperature Schedule Name

OS:Rendering:Color,
  {642d0896-ea2a-4282-838d-fe5e96a87316}, !- Handle
  Rendering Color 5,                      !- Name
  41,                                     !- Rendering Red Value
  31,                                     !- Rendering Green Value
  169;                                    !- Rendering Blue Value

OS:DefaultScheduleSet,
  {65cfadd0-5ae2-42e3-840c-5c1b3c59f678}, !- Handle
  DOEE- Elec/MechRoom -Schedule Set,      !- Name
  ,                                       !- Hours of Operation Schedule Name
  ,                                       !- Number of People Schedule Name
  ,                                       !- People Activity Level Schedule Name
  ,                                       !- Lighting Schedule Name
  ,                                       !- Electric Equipment Schedule Name
  ,                                       !- Gas Equipment Schedule Name
  ,                                       !- Hot Water Equipment Schedule Name
  ,                                       !- Infiltration Schedule Name
  ,                                       !- Steam Equipment Schedule Name
  ;                                       !- Other Equipment Schedule Name

OS:DesignSpecification:OutdoorAir,
  {3732b301-dc04-4682-9c3b-5766924fe717}, !- Handle
  189.1-2009 - Office - Elec/MechRoom - CZ4-8 Ventilation, !- Name
  Sum,                                    !- Outdoor Air Method
  0.009438948864,                         !- Outdoor Air Flow per Person {m3/s-person}
  ,                                       !- Outdoor Air Flow per Floor Area {m3/s-m2}
  ,                                       !- Outdoor Air Flow Rate {m3/s}
  ,                                       !- Outdoor Air Flow Air Changes per Hour {1/hr}
  ;                                       !- Outdoor Air Flow Rate Fraction Schedule Name

OS:ThermostatSetpoint:DualSetpoint,
  {6745f4a7-180f-4880-8385-d2c2517980a2}, !- Handle
  189.1-2009 - Office - Elec/MechRoom - CZ4-8 Thermostat, !- Name
  ,                                       !- Heating Setpoint Temperature Schedule Name
  ;                                       !- Cooling Setpoint Temperature Schedule Name

OS:Rendering:Color,
  {7368edde-4808-49a4-ac80-a56a0c66a4e5}, !- Handle
  Rendering Color 6,                      !- Name
  41,                                     !- Rendering Red Value
  31,                                     !- Rendering Green Value
  169;                                    !- Rendering Blue Value

OS:DesignSpecification:OutdoorAir,
  {86a00ee2-6afc-4e75-8277-435a038b6fb9}, !- Handle
  189.1-2009 - Office - IT_Room - CZ4-8 Ventilation, !- Name
  Sum,                                    !- Outdoor Air Method
  ,                                       !- Outdoor Air Flow per Person {m3/s-person}
  0.000254,                               !- Outdoor Air Flow per Floor Area {m3/s-m2}
  ,                                       !- Outdoor Air Flow Rate {m3/s}
  ,                                       !- Outdoor Air Flow Air Changes per Hour {1/hr}
  ;                                       !- Outdoor Air Flow Rate Fraction Schedule Name

OS:ThermostatSetpoint:DualSetpoint,
  {35e5fd86-22b8-4d5f-8352-b0d7b5fa65ff}, !- Handle
  189.1-2009 - Office - IT_Room - CZ4-8 Thermostat, !- Name
  ,                                       !- Heating Setpoint Temperature Schedule Name
  ;                                       !- Cooling Setpoint Temperature Schedule Name

OS:Rendering:Color,
  {2d558785-8e0f-4c88-bb1b-1551ea6fa00d}, !- Handle
  Rendering Color 7,                      !- Name
  230,                                    !- Rendering Red Value
  157,                                    !- Rendering Green Value
  120;                                    !- Rendering Blue Value

OS:DesignSpecification:OutdoorAir,
  {d74c95b9-1422-426d-8efa-634d1d9cfe98}, !- Handle
  189.1-2009 - Office - Lobby - CZ4-8 Ventilation, !- Name
  Sum,                                    !- Outdoor Air Method
  0.007079211648,                         !- Outdoor Air Flow per Person {m3/s-person}
  ,                                       !- Outdoor Air Flow per Floor Area {m3/s-m2}
  ,                                       !- Outdoor Air Flow Rate {m3/s}
  ,                                       !- Outdoor Air Flow Air Changes per Hour {1/hr}
  ;                                       !- Outdoor Air Flow Rate Fraction Schedule Name

OS:ThermostatSetpoint:DualSetpoint,
  {1dc80b64-93fd-4ad8-9e82-d9e83bb9639e}, !- Handle
  189.1-2009 - Office - Lobby - CZ4-8 Thermostat, !- Name
  ,                                       !- Heating Setpoint Temperature Schedule Name
  ;                                       !- Cooling Setpoint Temperature Schedule Name

OS:Rendering:Color,
  {bf2ad6e3-4ccb-4478-b681-7ac9f5be5754}, !- Handle
  Rendering Color 8,                      !- Name
  120,                                    !- Rendering Red Value
  230,                                    !- Rendering Green Value
  199;                                    !- Rendering Blue Value

OS:DesignSpecification:OutdoorAir,
  {f8d55c5f-d851-4af7-ba1e-15d1de9150da}, !- Handle
  189.1-2009 - Office - OpenOffice - CZ4-8 Ventilation, !- Name
  Sum,                                    !- Outdoor Air Method
  0.009438948864,                         !- Outdoor Air Flow per Person {m3/s-person}
  ,                                       !- Outdoor Air Flow per Floor Area {m3/s-m2}
  ,                                       !- Outdoor Air Flow Rate {m3/s}
  ,                                       !- Outdoor Air Flow Air Changes per Hour {1/hr}
  ;                                       !- Outdoor Air Flow Rate Fraction Schedule Name

OS:ThermostatSetpoint:DualSetpoint,
  {8a58ca99-3d4e-41a0-b9f2-cab4052ef446}, !- Handle
  189.1-2009 - Office - OpenOffice - CZ4-8 Thermostat, !- Name
  ,                                       !- Heating Setpoint Temperature Schedule Name
  ;                                       !- Cooling Setpoint Temperature Schedule Name

OS:Rendering:Color,
  {d26307f4-2b68-4765-a153-7819276174f7}, !- Handle
  Rendering Color 9,                      !- Name
  41,                                     !- Rendering Red Value
  31,                                     !- Rendering Green Value
  169;                                    !- Rendering Blue Value

OS:DefaultScheduleSet,
  {f87b02c6-6b65-4eac-86a9-e09bd71e3949}, !- Handle
  DOEE - WC-AHU- Schedule Set,            !- Name
  ,                                       !- Hours of Operation Schedule Name
  ,                                       !- Number of People Schedule Name
  ,                                       !- People Activity Level Schedule Name
  ,                                       !- Lighting Schedule Name
  ,                                       !- Electric Equipment Schedule Name
  ,                                       !- Gas Equipment Schedule Name
  ,                                       !- Hot Water Equipment Schedule Name
  ,                                       !- Infiltration Schedule Name
  ,                                       !- Steam Equipment Schedule Name
  ;                                       !- Other Equipment Schedule Name

OS:DesignSpecification:OutdoorAir,
  {0be3f984-d5e4-44a0-b6ad-43a45dccf372}, !- Handle
  189.1-2009 - Office - PrintRoom - CZ4-8 Ventilation, !- Name
  Sum,                                    !- Outdoor Air Method
  ,                                       !- Outdoor Air Flow per Person {m3/s-person}
  0.000254,                               !- Outdoor Air Flow per Floor Area {m3/s-m2}
  ,                                       !- Outdoor Air Flow Rate {m3/s}
  ,                                       !- Outdoor Air Flow Air Changes per Hour {1/hr}
  ;                                       !- Outdoor Air Flow Rate Fraction Schedule Name

OS:ThermostatSetpoint:DualSetpoint,
  {29f4a367-e701-40b1-8b11-1df69f69d26f}, !- Handle
  189.1-2009 - Office - PrintRoom - CZ4-8 Thermostat, !- Name
  ,                                       !- Heating Setpoint Temperature Schedule Name
  ;                                       !- Cooling Setpoint Temperature Schedule Name

OS:Rendering:Color,
  {4c0c652a-5d31-433c-9822-1ae8cdba9adf}, !- Handle
  Rendering Color 10,                     !- Name
  169,                                    !- Rendering Red Value
  169,                                    !- Rendering Green Value
  31,                                     !- Rendering Blue Value
  ;                                       !- Rendering Alpha Value

OS:DesignSpecification:OutdoorAir,
  {f42b85ce-d0be-4ed2-9e2f-8c2cd2751139}, !- Handle
  189.1-2009 - Office - Restroom - CZ4-8 Ventilation, !- Name
  Sum,                                    !- Outdoor Air Method
  ,                                       !- Outdoor Air Flow per Person {m3/s-person}
  0.0048768,                              !- Outdoor Air Flow per Floor Area {m3/s-m2}
  ,                                       !- Outdoor Air Flow Rate {m3/s}
  ,                                       !- Outdoor Air Flow Air Changes per Hour {1/hr}
  ;                                       !- Outdoor Air Flow Rate Fraction Schedule Name

OS:ThermostatSetpoint:DualSetpoint,
  {6920fc22-1912-4c7f-b807-6323a8310d4e}, !- Handle
  189.1-2009 - Office - Restroom - CZ4-8 Thermostat, !- Name
  ,                                       !- Heating Setpoint Temperature Schedule Name
  ;                                       !- Cooling Setpoint Temperature Schedule Name

OS:Rendering:Color,
  {30f8ccad-8289-44bc-a0af-62a014df1b3e}, !- Handle
  Rendering Color 11,                     !- Name
  230,                                    !- Rendering Red Value
  157,                                    !- Rendering Green Value
  120;                                    !- Rendering Blue Value

OS:DesignSpecification:OutdoorAir,
  {42c3205e-e8f7-416d-a4a2-105f951a55a2}, !- Handle
  189.1-2009 - Office - Stair - CZ4-8 Ventilation, !- Name
  Sum,                                    !- Outdoor Air Method
  ,                                       !- Outdoor Air Flow per Person {m3/s-person}
  0.000254,                               !- Outdoor Air Flow per Floor Area {m3/s-m2}
  ,                                       !- Outdoor Air Flow Rate {m3/s}
  ,                                       !- Outdoor Air Flow Air Changes per Hour {1/hr}
  ;                                       !- Outdoor Air Flow Rate Fraction Schedule Name

OS:ThermostatSetpoint:DualSetpoint,
  {8bbc236b-f244-42b3-813b-e05e7d76617b}, !- Handle
  189.1-2009 - Office - Stair - CZ4-8 Thermostat, !- Name
  ,                                       !- Heating Setpoint Temperature Schedule Name
  ;                                       !- Cooling Setpoint Temperature Schedule Name

OS:Rendering:Color,
  {f9d64a6d-eb11-4f3a-baed-f3896b39c4f4}, !- Handle
  Rendering Color 12,                     !- Name
  120,                                    !- Rendering Red Value
  149,                                    !- Rendering Green Value
  230;                                    !- Rendering Blue Value

OS:DesignSpecification:OutdoorAir,
  {67e1ef8e-b679-4a2a-bfb4-eb3733f1000a}, !- Handle
  189.1-2009 - Office - Storage - CZ4-8 Ventilation, !- Name
  Sum,                                    !- Outdoor Air Method
  ,                                       !- Outdoor Air Flow per Person {m3/s-person}
  0.000254,                               !- Outdoor Air Flow per Floor Area {m3/s-m2}
  ,                                       !- Outdoor Air Flow Rate {m3/s}
  ,                                       !- Outdoor Air Flow Air Changes per Hour {1/hr}
  ;                                       !- Outdoor Air Flow Rate Fraction Schedule Name

OS:ThermostatSetpoint:DualSetpoint,
  {dddae730-a5d5-4b9a-836d-83a321869a56}, !- Handle
  189.1-2009 - Office - Storage - CZ4-8 Thermostat, !- Name
  ,                                       !- Heating Setpoint Temperature Schedule Name
  ;                                       !- Cooling Setpoint Temperature Schedule Name

OS:Rendering:Color,
  {a56567af-9cd5-48ef-81a3-770b48841adb}, !- Handle
  Rendering Color 13,                     !- Name
  230,                                    !- Rendering Red Value
  157,                                    !- Rendering Green Value
  120;                                    !- Rendering Blue Value

OS:DesignSpecification:OutdoorAir,
  {8b9ec37e-27d2-4f6f-a3e7-c08be18d78c5}, !- Handle
  189.1-2009 - Office - Vending - CZ4-8 Ventilation, !- Name
  Sum,                                    !- Outdoor Air Method
  ,                                       !- Outdoor Air Flow per Person {m3/s-person}
  0.000254,                               !- Outdoor Air Flow per Floor Area {m3/s-m2}